
**** 07/30/18 14:29:17 ******* PSpice Lite (March 2016) ******* ID# 10813 ****

 ** Profile: "SCHEMATIC1-bias"  [ C:\Users\josef.TVP1\Documents\GitHub\VHF-Unit\Kretskortet\Simuleringen\Simulering-PSpiceFiles\SCHEM


 ****     CIRCUIT DESCRIPTION


******************************************************************************




** Creating circuit file "bias.cir" 
** WARNING: THIS AUTOMATICALLY GENERATED FILE MAY BE OVERWRITTEN BY SUBSEQUENT SIMULATIONS

*Libraries: 
* Profile Libraries :
* Local Libraries :
* From [PSPICE NETLIST] section of C:\Users\josef.TVP1\AppData\Roaming\SPB_Data\cdssetup\OrCAD_PSpice\17.2.0\PSpice.ini file:
.lib "nomd.lib" 

*Analysis directives: 
.AC DEC 1000 1 10000meg
.OPTIONS ADVCONV
.PROBE64 V(alias(*)) I(alias(*)) W(alias(*)) D(alias(*)) NOISE(alias(*)) 
.INC "..\SCHEMATIC1.net" 



**** INCLUDING SCHEMATIC1.net ****
* source SIMULERING
R_R19         0 N48604  1000000meg TC=0,0 
C_CM5         0 N48594  10p  TC=0,0 
C_CM4         0 N48614  18p  TC=0,0 
L_LM6         N48604 N48614  51n  
R_R18         0 N48662  50 TC=0,0 
V_V6         N48570 0 DC 0Vdc AC 1Vac 
C_CM6         N61793 N75730  220p  TC=0,0 
L_LM10         N48614 N62639  24n  
C_C33         0 N64032  18p  TC=0,0 
C_C32         N64022 0  18p  TC=0,0 
L_L15         N64046 N64238  27n  
V_V5         N64168 0 DC 0Vdc AC 1Vac 
C_C28         N64032 N64046  1.8p  TC=0,0 
C_C34         0 N64046  11p  TC=0,0 
C_C31         N64242 N64238  470p  TC=0,0 
R_R15         0 N64242  50 TC=0,0 
R_R14         0 N64178  100000meg TC=0,0 
L_L12         N64178 N64022  47n  
C_C27         N64022 N64032  2.7p  TC=0,0 
R_R16         0 N64032  100000meg TC=0,0 
C_C29         N72799 N64178  470p  TC=0,0 
L_L13         N64022 N64032  68n  
L_L14         N64032 N64046  47n  
L_LM9         N48594 N48604  46n  
C_CM10         0 N48604  22p  TC=0,0 
R_R22         N72799 N64168  50 TC=0,0 
R_R25         N75730 N48570  50 TC=0,0 
C_CM11         N48662 N62639  220p  TC=0,0 
V_V8         N76978 0 DC 0Vdc AC 1Vac 
R_R26         N76988 N76978  50 TC=0,0 
C_C44         N77008 0  22p  TC=0,0 
C_C42         N76988 N76994  470p  TC=0,0 
C_C45         0 N77022  22p  TC=0,0 
L_L16         N76994 N77008  47n  
C_C43         N77054 N77050  470p  TC=0,0 
R_R29         0 N77022  100000meg TC=0,0 
L_L17         N77008 N77022  68n  
R_R27         0 N76994  100000meg TC=0,0 
C_C46         0 N77038  15p  TC=0,0 
L_L18         N77022 N77038  47n  
R_R28         0 N77054  50 TC=0,0 
L_L19         N77038 N77050  27n  
C_C40         N77008 N77022  1.5p  TC=0,0 
C_C41         N77022 N77038  1.0p  TC=0,0 
L_LM13         N79517 N82831  33n  
C_CM15         0 N79491  22p  TC=0,0 
V_V9         N79461 0 DC 0Vdc AC 1Vac 
R_R30         N79471 N79461  50 TC=0,0 
C_CM16         0 N79517  22p  TC=0,0 
C_CM12         N79475 N79471  200p  TC=0,0 
R_R32         0 N79543  50 TC=0,0 
C_CM13         N79543 N82831  200p  TC=0,0 
L_LM11         N79479 N79491  68n  
C_CM14         0 N79479  18p  TC=0,0 
L_LM12         N79491 N79517  68n  
R_R31         0 N79491  1000000meg TC=0,0 
L_LM14         N79475 N79479  33n  
L_LM15         N61793 N48594  10n  

**** RESUMING bias.cir ****
.END

**** 07/30/18 14:29:17 ******* PSpice Lite (March 2016) ******* ID# 10813 ****

 ** Profile: "SCHEMATIC1-bias"  [ C:\Users\josef.TVP1\Documents\GitHub\VHF-Unit\Kretskortet\Simuleringen\Simulering-PSpiceFiles\SCHEM


 ****     SMALL SIGNAL BIAS SOLUTION       TEMPERATURE =   27.000 DEG C


******************************************************************************



 NODE   VOLTAGE     NODE   VOLTAGE     NODE   VOLTAGE     NODE   VOLTAGE


(N48570)    0.0000 (N48594)    0.0000 (N48604)    0.0000 (N48614)    0.0000     

(N48662)    0.0000 (N61793)    0.0000 (N62639)    0.0000 (N64022)    0.0000     

(N64032)    0.0000 (N64046)    0.0000 (N64168)    0.0000 (N64178)    0.0000     

(N64238)    0.0000 (N64242)    0.0000 (N72799)    0.0000 (N75730)    0.0000     

(N76978)    0.0000 (N76988)    0.0000 (N76994)    0.0000 (N77008)    0.0000     

(N77022)    0.0000 (N77038)    0.0000 (N77050)    0.0000 (N77054)    0.0000     

(N79461)    0.0000 (N79471)    0.0000 (N79475)    0.0000 (N79479)    0.0000     

(N79491)    0.0000 (N79517)    0.0000 (N79543)    0.0000 (N82831)    0.0000 




    VOLTAGE SOURCE CURRENTS
    NAME         CURRENT

    V_V6         0.000E+00
    V_V5         0.000E+00
    V_V8         0.000E+00
    V_V9         0.000E+00

    TOTAL POWER DISSIPATION   0.00E+00  WATTS



          JOB CONCLUDED

**** 07/30/18 14:29:17 ******* PSpice Lite (March 2016) ******* ID# 10813 ****

 ** Profile: "SCHEMATIC1-bias"  [ C:\Users\josef.TVP1\Documents\GitHub\VHF-Unit\Kretskortet\Simuleringen\Simulering-PSpiceFiles\SCHEM


 ****     JOB STATISTICS SUMMARY


******************************************************************************



  Total job time (using Solver 1)   =         .42
